34Bus/Test runs/20_Linear Loads/ieee34-1_VLN_Node.Txt

LINE-GROUND and LINE-LINE VOLTAGES BY BUS & NODE

Bus       Node    VLN (kV)   Angle      pu     Base kV    Node-Node   VLL (kV)  Angle      pu

SOURCEBUS 1       41.829 /_   30.0      1.05    69.000        1-2      72.45 /_   60.0      1.05
   -      2       41.829 /_  -90.0      1.05    69.000        2-3      72.45 /_  -60.0      1.05
   -      3       41.829 /_  150.0      1.05    69.000        3-1      72.45 /_  180.0      1.05
800 ..... 1       15.095 /_    0.0      1.05    24.900        1-2     26.145 /_   30.0      1.05
   -      2       15.095 /_ -120.0      1.05    24.900        2-3     26.145 /_  -90.0      1.05
   -      3       15.095 /_  120.0      1.05    24.900        3-1     26.145 /_  150.0      1.05
802 ..... 1       15.057 /_   -0.1    1.0474    24.900        1-2     26.095 /_   30.0     1.048
   -      2       15.072 /_ -120.1    1.0484    24.900        2-3     26.103 /_  -90.1    1.0483
   -      3       15.071 /_  119.9    1.0484    24.900        3-1     26.092 /_  149.9    1.0479
806 ..... 1       15.032 /_   -0.1    1.0456    24.900        1-2     26.061 /_   29.9    1.0466
   -      2       15.057 /_ -120.1    1.0474    24.900        2-3     26.075 /_  -90.1    1.0472
   -      3       15.056 /_  119.9    1.0473    24.900        3-1     26.057 /_  149.9    1.0465
808 ..... 1       14.559 /_   -0.8    1.0127    24.900        1-2     25.447 /_   29.4     1.022
   -      2       14.796 /_ -121.0    1.0292    24.900        2-3      25.58 /_  -90.9    1.0273
   -      3       14.778 /_  119.3     1.028    24.900        3-1     25.415 /_  149.0    1.0207
810 ..... 2       14.794 /_ -121.0    1.0291    24.900
812 ..... 1       14.009 /_   -1.7   0.97444    24.900        1-2     24.738 /_   28.8   0.99348
   -      2        14.51 /_ -122.0    1.0093    24.900        2-3     25.016 /_  -91.8    1.0047
   -      3        14.45 /_  118.5    1.0051    24.900        3-1     24.669 /_  147.9   0.99073
814 ..... 1       13.572 /_   -2.4   0.94407    24.900        1-2     24.173 /_   28.3   0.97082
   -      2       14.283 /_ -122.8   0.99356    24.900        2-3      24.57 /_  -92.5   0.98675
   -      3       14.188 /_  117.9   0.98691    24.900        3-1     24.079 /_  147.0   0.96704
814R .... 1       14.756 /_   -2.4    1.0264    24.900        1-2     25.583 /_   27.4    1.0274
   -      2       14.727 /_ -122.8    1.0244    24.900        2-3     25.411 /_  -92.5    1.0205
   -      3       14.718 /_  117.9    1.0238    24.900        3-1     25.565 /_  147.8    1.0267
850 ..... 1       14.756 /_   -2.4    1.0264    24.900        1-2     25.583 /_   27.4    1.0274
   -      2       14.727 /_ -122.8    1.0244    24.900        2-3     25.411 /_  -92.5    1.0205
   -      3       14.718 /_  117.9    1.0238    24.900        3-1     25.564 /_  147.8    1.0267
816 ..... 1        14.75 /_   -2.4     1.026    24.900        1-2     25.575 /_   27.4    1.0271
   -      2       14.724 /_ -122.8    1.0242    24.900        2-3     25.404 /_  -92.5    1.0202
   -      3       14.714 /_  117.9    1.0235    24.900        3-1     25.556 /_  147.8    1.0263
818 ..... 1       14.737 /_   -2.4    1.0251    24.900
824 ..... 1       14.616 /_   -2.5    1.0167    24.900        1-2     25.353 /_   27.2    1.0182
   -      2       14.585 /_ -123.0    1.0145    24.900        2-3     25.179 /_  -92.7    1.0112
   -      3       14.589 /_  117.6    1.0148    24.900        3-1     25.314 /_  147.6    1.0166
820 ..... 1       14.399 /_   -2.5    1.0016    24.900
822 ..... 1       14.355 /_   -2.5   0.99855    24.900
826 ..... 2       14.582 /_ -123.0    1.0144    24.900
828 ..... 1       14.605 /_   -2.5    1.0159    24.900        1-2     25.336 /_   27.2    1.0175
   -      2       14.575 /_ -123.1    1.0138    24.900        2-3     25.162 /_  -92.7    1.0105
   -      3       14.579 /_  117.6    1.0141    24.900        3-1     25.295 /_  147.6    1.0159
830 ..... 1        14.34 /_   -2.8   0.99752    24.900        1-2     24.913 /_   26.8    1.0005
   -      2       14.326 /_ -123.5   0.99652    24.900        2-3     24.736 /_  -93.2   0.99342
   -      3       14.326 /_  117.1   0.99655    24.900        3-1     24.816 /_  147.2   0.99663
854 ..... 1       14.334 /_   -2.8   0.99708    24.900        1-2     24.902 /_   26.8    1.0001
   -      2        14.32 /_ -123.5   0.99608    24.900        2-3     24.726 /_  -93.2     0.993
   -      3        14.32 /_  117.1   0.99612    24.900        3-1     24.804 /_  147.1   0.99616
832 ..... 1       15.091 /_   -3.3    1.0497    24.900        1-2     26.199 /_   26.1    1.0522
   -      2       15.008 /_ -124.4    1.0439    24.900        2-3     25.929 /_  -94.1    1.0413
   -      3       15.008 /_  116.1    1.0439    24.900        3-1     25.997 /_  146.5     1.044
858 ..... 1       15.057 /_   -3.4    1.0474    24.900        1-2     26.145 /_   26.0      1.05
   -      2       14.974 /_ -124.5    1.0416    24.900        2-3     25.874 /_  -94.2    1.0391
   -      3       14.976 /_  116.0    1.0417    24.900        3-1     25.934 /_  146.4    1.0415
834 ..... 1       15.018 /_   -3.5    1.0447    24.900        1-2     26.081 /_   25.9    1.0474
   -      2       14.935 /_ -124.6    1.0389    24.900        2-3     25.811 /_  -94.3    1.0366
   -      3       14.939 /_  115.9    1.0392    24.900        3-1     25.861 /_  146.3    1.0386
860 ..... 1       15.012 /_   -3.5    1.0442    24.900        1-2     26.072 /_   25.9     1.047
   -      2       14.929 /_ -124.6    1.0384    24.900        2-3     25.802 /_  -94.3    1.0362
   -      3       14.934 /_  115.9    1.0388    24.900        3-1      25.85 /_  146.3    1.0381
842 ..... 1       15.018 /_   -3.5    1.0446    24.900        1-2      26.08 /_   25.9    1.0474
   -      2       14.934 /_ -124.6    1.0388    24.900        2-3      25.81 /_  -94.3    1.0366
   -      3       14.939 /_  115.9    1.0391    24.900        3-1      25.86 /_  146.3    1.0385
836 ..... 1       15.009 /_   -3.5     1.044    24.900        1-2     26.065 /_   25.9    1.0468
   -      2       14.923 /_ -124.6    1.0381    24.900        2-3     25.795 /_  -94.3     1.036
   -      3       14.932 /_  115.9    1.0387    24.900        3-1     25.845 /_  146.3     1.038
840 ..... 1       15.009 /_   -3.5     1.044    24.900        1-2     26.064 /_   25.9    1.0468
   -      2       14.923 /_ -124.6     1.038    24.900        2-3     25.795 /_  -94.3    1.0359
   -      3       14.931 /_  115.9    1.0386    24.900        3-1     25.844 /_  146.3    1.0379
862 ..... 1       15.009 /_   -3.5     1.044    24.900        1-2     26.065 /_   25.9    1.0468
   -      2       14.923 /_ -124.6     1.038    24.900        2-3     25.795 /_  -94.3    1.0359
   -      3       14.932 /_  115.9    1.0387    24.900        3-1     25.845 /_  146.3     1.038
844 ..... 1       15.014 /_   -3.5    1.0444    24.900        1-2     26.073 /_   25.9    1.0471
   -      2       14.929 /_ -124.6    1.0385    24.900        2-3     25.803 /_  -94.4    1.0363
   -      3       14.935 /_  115.9    1.0389    24.900        3-1     25.854 /_  146.3    1.0383
846 ..... 1       15.018 /_   -3.5    1.0447    24.900        1-2     26.077 /_   25.8    1.0473
   -      2       14.929 /_ -124.6    1.0384    24.900        2-3     25.807 /_  -94.4    1.0364
   -      3       14.939 /_  115.8    1.0392    24.900        3-1      25.86 /_  146.2    1.0385
848 ..... 1       15.019 /_   -3.5    1.0447    24.900        1-2     26.078 /_   25.8    1.0473
   -      2       14.929 /_ -124.6    1.0385    24.900        2-3     25.808 /_  -94.4    1.0365
   -      3        14.94 /_  115.8    1.0392    24.900        3-1     25.861 /_  146.2    1.0386
852R .... 1       15.091 /_   -3.3    1.0497    24.900        1-2     26.199 /_   26.1    1.0522
   -      2       15.008 /_ -124.4    1.0439    24.900        2-3     25.929 /_  -94.1    1.0413
   -      3       15.008 /_  116.1    1.0439    24.900        3-1     25.997 /_  146.5    1.0441
888 ..... 1       2.4324 /_   -5.0    1.0128     4.160        1-2     4.2245 /_   24.4    1.0155
   -      2       2.4201 /_ -126.1    1.0076     4.160        2-3      4.181 /_  -95.8    1.0051
   -      3         2.42 /_  114.4    1.0076     4.160        3-1     4.1907 /_  144.8    1.0074
856 ..... 2       14.318 /_ -123.5   0.99599    24.900
852 ..... 1       13.878 /_   -3.3   0.96539    24.900        1-2     24.164 /_   26.2   0.97043
   -      2       13.882 /_ -124.3   0.96562    24.900        2-3     23.983 /_  -94.1   0.96318
   -      3       13.882 /_  116.1    0.9656    24.900        3-1     23.977 /_  146.4   0.96295
864 ..... 1       15.057 /_   -3.4    1.0474    24.900
838 ..... 2       14.921 /_ -124.6    1.0379    24.900
890 ..... 1       2.2241 /_   -5.9   0.92604     4.160        1-2     3.8914 /_   23.4   0.93544
   -      2       2.2351 /_ -127.4   0.93061     4.160        2-3     3.8408 /_  -97.2   0.92326
   -      3       2.2145 /_  113.2   0.92202     4.160        3-1     3.8267 /_  143.8   0.91988
